This namelist contains various input parameters for HYDRO runs

&RUN
nstepmax=500
tend=2.0
noutput=10
on_output=.false.
/

&MESH
nx=960
ny=240
dx=0.01
boundary_left=1
boundary_right=1
boundary_down=1
boundary_up=1
idimbloc=21
jdimbloc=21
/

&HYDRO
courant_factor=0.8
niter_riemann=10
/
