This namelist contains various input parameters for HYDRO runs

&RUN
tend=2100.0
noutput=25000
on_output=.false.
/

&MESH
nx=3360
ny=500
dx=0.01
boundary_left=1
boundary_right=1
boundary_down=1
boundary_up=1
idimbloc=21
jdimbloc=21
/

&HYDRO
courant_factor=0.8
niter_riemann=10
/
